CPDS_validation_cosim/Distribution/Bus11/IEEE34Bus/ieee34-1_VLN_Node_818.Txt

LINE-GROUND and LINE-LINE VOLTAGES BY BUS & NODE

Bus       Node    VLN (kV)   Angle      pu     Base kV    Node-Node   VLL (kV)  Angle      pu

SOURCEBUS 1       41.829 /_    0.0      1.05    69.000        1-2      72.45 /_   30.0      1.05
   -      2       41.829 /_ -120.0      1.05    69.000        2-3      72.45 /_  -90.0      1.05
   -      3       41.829 /_  120.0      1.05    69.000        3-1      72.45 /_  150.0      1.05
800 ..... 1       15.095 /_  -30.0      1.05    24.900        1-2     26.145 /_    0.0      1.05
   -      2       15.095 /_ -150.0      1.05    24.900        2-3     26.145 /_ -120.0      1.05
   -      3       15.095 /_   90.0      1.05    24.900        3-1     26.145 /_  120.0      1.05
802 ..... 1       15.061 /_  -30.0    1.0477    24.900        1-2     26.098 /_    0.0    1.0481
   -      2       15.071 /_ -150.1    1.0483    24.900        2-3     26.103 /_ -120.1    1.0483
   -      3       15.073 /_   89.9    1.0485    24.900        3-1     26.096 /_  119.9     1.048
806 ..... 1       15.039 /_  -30.1    1.0461    24.900        1-2     26.068 /_   -0.1    1.0469
   -      2       15.055 /_ -150.1    1.0472    24.900        2-3     26.076 /_ -120.1    1.0472
   -      3       15.059 /_   89.9    1.0475    24.900        3-1     26.063 /_  119.9    1.0467
808 ..... 1       14.616 /_  -30.6    1.0167    24.900        1-2     25.501 /_   -0.6    1.0241
   -      2        14.78 /_ -151.0    1.0281    24.900        2-3      25.59 /_ -120.8    1.0277
   -      3       14.801 /_   89.3    1.0296    24.900        3-1     25.463 /_  119.1    1.0226
810 ..... 2       14.778 /_ -151.0     1.028    24.900
812 ..... 1       14.124 /_  -31.3   0.98249    24.900        1-2     24.848 /_   -1.2   0.99791
   -      2       14.477 /_ -152.0     1.007    24.900        2-3     25.035 /_ -121.7    1.0054
   -      3       14.496 /_   88.5    1.0084    24.900        3-1     24.765 /_  118.1   0.99456
814 ..... 1       13.733 /_  -31.9   0.95526    24.900        1-2     24.328 /_   -1.7   0.97702
   -      2       14.238 /_ -152.8   0.99037    24.900        2-3     24.596 /_ -122.4   0.98778
   -      3       14.254 /_   87.9   0.99149    24.900        3-1     24.211 /_  117.4   0.97233
814R .... 1       14.759 /_  -31.9    1.0267    24.900        1-2     25.604 /_   -2.4    1.0283
   -      2        14.68 /_ -152.8    1.0212    24.900        2-3     25.361 /_ -122.4    1.0185
   -      3       14.697 /_   87.9    1.0224    24.900        3-1     25.482 /_  118.0    1.0234
850 ..... 1       14.759 /_  -31.9    1.0267    24.900        1-2     25.604 /_   -2.4    1.0283
   -      2        14.68 /_ -152.8    1.0212    24.900        2-3     25.361 /_ -122.4    1.0185
   -      3       14.697 /_   87.9    1.0223    24.900        3-1     25.482 /_  118.0    1.0234
816 ..... 1       14.754 /_  -31.9    1.0263    24.900        1-2     25.597 /_   -2.4     1.028
   -      2       14.676 /_ -152.8    1.0209    24.900        2-3     25.354 /_ -122.4    1.0182
   -      3       14.694 /_   87.8    1.0221    24.900        3-1     25.474 /_  118.0     1.023
818 ..... 1       14.744 /_  -31.9    1.0256    24.900
824 ..... 1       14.626 /_  -32.0    1.0174    24.900        1-2      25.38 /_   -2.6    1.0193
   -      2       14.539 /_ -153.0    1.0113    24.900        2-3     25.134 /_ -122.7    1.0094
   -      3       14.573 /_   87.6    1.0137    24.900        3-1     25.242 /_  117.8    1.0137
820 ..... 1       14.406 /_  -32.0    1.0021    24.900
822 ..... 1       14.363 /_  -32.0   0.99907    24.900
826 ..... 2       14.536 /_ -153.0    1.0111    24.900
828 ..... 1       14.615 /_  -32.1    1.0166    24.900        1-2     25.363 /_   -2.6    1.0186
   -      2       14.529 /_ -153.0    1.0106    24.900        2-3     25.116 /_ -122.7    1.0087
   -      3       14.563 /_   87.6     1.013    24.900        3-1     25.223 /_  117.8     1.013
830 ..... 1       14.361 /_  -32.3   0.99899    24.900        1-2      24.95 /_   -3.0     1.002
   -      2       14.282 /_ -153.5   0.99343    24.900        2-3     24.698 /_ -123.2   0.99188
   -      3       14.319 /_   87.1   0.99601    24.900        3-1     24.762 /_  117.4   0.99446
854 ..... 1       14.355 /_  -32.3   0.99856    24.900        1-2      24.94 /_   -3.0    1.0016
   -      2       14.275 /_ -153.5     0.993    24.900        2-3     24.688 /_ -123.2   0.99147
   -      3       14.313 /_   87.1    0.9956    24.900        3-1     24.751 /_  117.4   0.99401
832 ..... 1       15.045 /_  -32.8    1.0465    24.900        1-2     26.188 /_   -3.6    1.0517
   -      2       14.969 /_ -154.3    1.0412    24.900        2-3     25.907 /_ -124.0    1.0404
   -      3       15.013 /_   86.1    1.0443    24.900        3-1      25.89 /_  116.7    1.0398
858 ..... 1       15.012 /_  -32.9    1.0442    24.900        1-2     26.134 /_   -3.7    1.0496
   -      2       14.935 /_ -154.4    1.0389    24.900        2-3     25.853 /_ -124.1    1.0383
   -      3       14.982 /_   86.0    1.0421    24.900        3-1     25.828 /_  116.6    1.0373
834 ..... 1       14.974 /_  -32.9    1.0416    24.900        1-2     26.072 /_   -3.8    1.0471
   -      2       14.896 /_ -154.5    1.0362    24.900        2-3     25.791 /_ -124.3    1.0358
   -      3       14.946 /_   85.9    1.0396    24.900        3-1     25.756 /_  116.5    1.0344
860 ..... 1       14.967 /_  -32.9    1.0411    24.900        1-2     26.062 /_   -3.8    1.0467
   -      2        14.89 /_ -154.5    1.0358    24.900        2-3     25.781 /_ -124.3    1.0354
   -      3        14.94 /_   85.9    1.0392    24.900        3-1     25.745 /_  116.5    1.0339
842 ..... 1       14.973 /_  -32.9    1.0415    24.900        1-2      26.07 /_   -3.8     1.047
   -      2       14.895 /_ -154.5    1.0361    24.900        2-3     25.789 /_ -124.3    1.0357
   -      3       14.945 /_   85.9    1.0396    24.900        3-1     25.755 /_  116.5    1.0343
836 ..... 1       14.964 /_  -32.9    1.0409    24.900        1-2     26.055 /_   -3.8    1.0464
   -      2       14.885 /_ -154.5    1.0354    24.900        2-3     25.775 /_ -124.3    1.0351
   -      3       14.938 /_   85.9    1.0391    24.900        3-1      25.74 /_  116.5    1.0337
840 ..... 1       14.964 /_  -32.9    1.0409    24.900        1-2     26.055 /_   -3.8    1.0464
   -      2       14.884 /_ -154.5    1.0354    24.900        2-3     25.774 /_ -124.3    1.0351
   -      3       14.938 /_   85.9    1.0391    24.900        3-1      25.74 /_  116.5    1.0337
862 ..... 1       14.964 /_  -32.9    1.0409    24.900        1-2     26.055 /_   -3.8    1.0464
   -      2       14.885 /_ -154.5    1.0354    24.900        2-3     25.775 /_ -124.3    1.0351
   -      3       14.938 /_   85.9    1.0391    24.900        3-1      25.74 /_  116.5    1.0337
844 ..... 1        14.97 /_  -33.0    1.0413    24.900        1-2     26.064 /_   -3.8    1.0467
   -      2       14.891 /_ -154.5    1.0358    24.900        2-3     25.783 /_ -124.3    1.0355
   -      3       14.942 /_   85.9    1.0393    24.900        3-1     25.749 /_  116.5    1.0341
846 ..... 1       14.974 /_  -33.0    1.0416    24.900        1-2     26.067 /_   -3.9    1.0469
   -      2       14.891 /_ -154.6    1.0358    24.900        2-3     25.787 /_ -124.3    1.0356
   -      3       14.946 /_   85.8    1.0396    24.900        3-1     25.755 /_  116.4    1.0343
848 ..... 1       14.974 /_  -33.0    1.0416    24.900        1-2     26.068 /_   -3.9    1.0469
   -      2       14.891 /_ -154.6    1.0358    24.900        2-3     25.788 /_ -124.3    1.0357
   -      3       14.946 /_   85.8    1.0397    24.900        3-1     25.756 /_  116.4    1.0344
852R .... 1       15.045 /_  -32.8    1.0465    24.900        1-2     26.188 /_   -3.6    1.0517
   -      2       14.969 /_ -154.3    1.0412    24.900        2-3     25.907 /_ -124.0    1.0404
   -      3       15.013 /_   86.1    1.0443    24.900        3-1     25.891 /_  116.7    1.0398
888 ..... 1       2.4258 /_  -34.3      1.01     4.160        1-2     4.2239 /_   -5.2    1.0154
   -      2        2.414 /_ -155.9    1.0051     4.160        2-3     4.1779 /_ -125.6    1.0043
   -      3       2.4219 /_   84.6    1.0084     4.160        3-1     4.1752 /_  115.2    1.0037
856 ..... 2       14.274 /_ -153.5   0.99291    24.900
852 ..... 1       13.916 /_  -32.8   0.96803    24.900        1-2     24.223 /_   -3.6   0.97282
   -      2       13.846 /_ -154.3   0.96311    24.900        2-3     23.963 /_ -124.0   0.96237
   -      3       13.887 /_   86.1   0.96596    24.900        3-1     23.948 /_  116.7   0.96177
864 ..... 1       15.012 /_  -32.9    1.0442    24.900
838 ..... 2       14.882 /_ -154.5    1.0352    24.900
890 ..... 1       2.2266 /_  -34.8   0.92707     4.160        1-2      3.903 /_   -5.8   0.93822
   -      2       2.2343 /_ -156.9   0.93027     4.160        2-3     3.8483 /_ -126.6   0.92507
   -      3       2.2246 /_   83.8   0.92624     4.160        3-1     3.8274 /_  114.5   0.92005
